/*--------------------------------*- C++ -*----------------------------------*\
| =========                 |                                                 |
| \\      /  F ield         | OpenFOAM: The Open Source CFD Toolbox           |
|  \\    /   O peration     | Version:  v2206                                 |
|   \\  /    A nd           | Website:  www.openfoam.com                      |
|    \\/     M anipulation  |                                                 |
\*---------------------------------------------------------------------------*/
FoamFile
{
    version     2.0;
    format      ascii;
    class       volScalarField;
    object      ph_rgh;
}
// * * * * * * * * * * * * * * * * * * * * * * * * * * * * * * * * * * * * * //

dimensions      [1 -1 -2 0 0 0 0];

internalField   uniform 0;

boundaryField
{
    burner
    {
        type            fixedFluxPressure;
        value           $internalField;
    }

    floor
    {
        type            fixedFluxPressure;
        value           $internalField;
    }

    sides
    {
        type            fixedFluxPressure;
        value           $internalField;
    }

    outlet
    {
        type            fixedValue;
        value           $internalField;
    }
}

// ************************************************************************* //
